ProjectFiles/HECO/DSSfiles/Backup/LoadsMikilua.dss
! Script for LoadsMikilua.dss

! LOAD DEFINITIONS
New Load.BB_258064a Bus1=DEV_258183.1 Phases=1 kV=7.19955785679 Model=1 kW=12.106599 pf=.98 yearly=M3loadmult_Sep16to17 !2.391009
New Load.BB_258067a Bus1=DEV_258084.1 Phases=1 kV=7.19955785679 Model=1 kW=10.835130 pf=.98 yearly=M3loadmult_Sep16to17 !2.139899
New Load.BB_258070a Bus1=DEV_258185.1 Phases=1 kV=7.19955785679 Model=1 kW=18.463945 pf=.98 yearly=M3loadmult_Sep16to17 !3.646562
New Load.BB_258073a Bus1=DEV_258195.1 Phases=1 kV=7.19955785679 Model=1 kW=15.312913 pf=.98 yearly=M3loadmult_Sep16to17 !3.024245
New Load.BB_258077a Bus1=DEV_258191.1 Phases=1 kV=7.19955785679 Model=1 kW=20.177665 pf=.98 yearly=M3loadmult_Sep16to17 !3.985015
New Load.BB_258080a Bus1=DEV_258181.1 Phases=1 kV=7.19955785679 Model=1 kW=29.243794 pf=.98 yearly=M3loadmult_Sep16to17 !5.775543
New Load.BB_258153a Bus1=DEV_258152.1 Phases=1 kV=7.19955785679 Model=1 kW=1.492594 pf=.98 yearly=M3loadmult_Sep16to17 !0.294782
New Load.BB_258202a Bus1=DEV_258211.1 Phases=1 kV=7.19955785679 Model=1 kW=11.996036 pf=.98 yearly=M3loadmult_Sep16to17 !2.369174
New Load.BB_258797a Bus1=DEV_258894.1 Phases=1 kV=7.19955785679 Model=1 kW=9.066129 pf=.98 yearly=M3loadmult_Sep16to17 !1.790527
New Load.BB_258803a Bus1=DEV_258887.1 Phases=1 kV=7.19955785679 Model=1 kW=20.675196 pf=.98 yearly=M3loadmult_Sep16to17 !4.083276
New Load.BB_258805a Bus1=DEV_258818.1 Phases=1 kV=7.19955785679 Model=1 kW=9.950629 pf=.98 yearly=M3loadmult_Sep16to17 !1.965213
New Load.BB_258824a Bus1=DEV_258823.1 Phases=1 kV=7.19955785679 Model=1 kW=19.237883 pf=.98 yearly=M3loadmult_Sep16to17 !3.799412
New Load.BB_258838a Bus1=DEV_258897.1 Phases=1 kV=7.19955785679 Model=1 kW=17.855851 pf=.98 yearly=M3loadmult_Sep16to17 !3.526466
New Load.BB_258899a Bus1=DEV_258885.1 Phases=1 kV=7.19955785679 Model=1 kW=22.001947 pf=.98 yearly=M3loadmult_Sep16to17 !4.345304
New Load.BB_259014a Bus1=DEV_259186.1 Phases=1 kV=7.19955785679 Model=1 kW=34.827202 pf=.98 yearly=M3loadmult_Sep16to17 !6.878246
New Load.BB_259014b Bus1=DEV_259186.2 Phases=1 kV=7.19955785679 Model=1 kW=34.827202 pf=.98 yearly=M3loadmult_Sep16to17 !6.878246
New Load.BB_259014c Bus1=DEV_259186.3 Phases=1 kV=7.19955785679 Model=1 kW=34.827202 pf=.98 yearly=M3loadmult_Sep16to17 !6.878246
New Load.BB_259031a Bus1=DEV_259145.1 Phases=1 kV=7.19955785679 Model=1 kW=15.865725 pf=.98 yearly=M3loadmult_Sep16to17 !3.133423
New Load.BB_259033a Bus1=DEV_259034.1 Phases=1 kV=7.19955785679 Model=1 kW=20.288227 pf=.98 yearly=M3loadmult_Sep16to17 !4.006851
New Load.BB_259037a Bus1=DEV_259038.1 Phases=1 kV=7.19955785679 Model=1 kW=18.463945 pf=.98 yearly=M3loadmult_Sep16to17 !3.646562
New Load.BB_259041a Bus1=DEV_259153.1 Phases=1 kV=7.19955785679 Model=1 kW=15.312913 pf=.98 yearly=M3loadmult_Sep16to17 !3.024245
New Load.BB_259044a Bus1=DEV_259045.1 Phases=1 kV=7.19955785679 Model=1 kW=10.448161 pf=.98 yearly=M3loadmult_Sep16to17 !2.063474
New Load.BB_259160a Bus1=DEV_259161.1 Phases=1 kV=7.19955785679 Model=1 kW=22.057228 pf=.98 yearly=M3loadmult_Sep16to17 !4.356222
New Load.BB_259166a Bus1=DEV_259168.1 Phases=1 kV=7.19955785679 Model=1 kW=15.368194 pf=.98 yearly=M3loadmult_Sep16to17 !3.035162
New Load.BB_259171a Bus1=DEV_259172.1 Phases=1 kV=7.19955785679 Model=1 kW=15.202350 pf=.98 yearly=M3loadmult_Sep16to17 !3.002409
New Load.BB_259176a Bus1=DEV_259178.1 Phases=1 kV=7.19955785679 Model=1 kW=16.473819 pf=.98 yearly=M3loadmult_Sep16to17 !3.253519
New Load.BB_262469c Bus1=DEV_262470.3 Phases=1 kV=7.19955785679 Model=1 kW=13.930089 pf=.98 yearly=M3loadmult_Sep16to17 !2.842917
New Load.BB_263527a Bus1=DEV_263528.1 Phases=1 kV=7.19955785679 Model=1 kW=10.010597 pf=.98 yearly=M3loadmult_Sep16to17 !2.043009
New Load.BB_263527b Bus1=DEV_263528.2 Phases=1 kV=7.19955785679 Model=1 kW=10.010597 pf=.98 yearly=M3loadmult_Sep16to17 !2.043009
New Load.BB_263527c Bus1=DEV_263528.3 Phases=1 kV=7.19955785679 Model=1 kW=10.010597 pf=.98 yearly=M3loadmult_Sep16to17 !2.043009
New Load.BB_263551c Bus1=DEV_263554.3 Phases=1 kV=7.19955785679 Model=1 kW=17.161023 pf=.98 yearly=M3loadmult_Sep16to17 !3.502301
New Load.BB_263552c Bus1=DEV_263557.3 Phases=1 kV=7.19955785679 Model=1 kW=14.565683 pf=.98 yearly=M3loadmult_Sep16to17 !2.972632
New Load.BB_263625a Bus1=DEV_263913.1 Phases=1 kV=7.19955785679 Model=1 kW=18.644074 pf=.98 yearly=M3loadmult_Sep16to17 !3.804969
New Load.BB_263629a Bus1=DEV_263905.1 Phases=1 kV=7.19955785679 Model=1 kW=18.326277 pf=.98 yearly=M3loadmult_Sep16to17 !3.740112
New Load.BB_263786c Bus1=DEV_263881.3 Phases=1 kV=7.19955785679 Model=1 kW=18.855939 pf=.98 yearly=M3loadmult_Sep16to17 !3.848208
New Load.BB_263787c Bus1=DEV_263883.3 Phases=1 kV=7.19955785679 Model=1 kW=15.677971 pf=.98 yearly=M3loadmult_Sep16to17 !3.199633
New Load.BB_263788c Bus1=DEV_263885.3 Phases=1 kV=7.19955785679 Model=1 kW=6.832629 pf=.98 yearly=M3loadmult_Sep16to17 !1.394435
New Load.BB_263789c Bus1=DEV_263879.3 Phases=1 kV=7.19955785679 Model=1 kW=19.014837 pf=.98 yearly=M3loadmult_Sep16to17 !3.880636
New Load.BB_263790c Bus1=DEV_263915.3 Phases=1 kV=7.19955785679 Model=1 kW=9.163139 pf=.98 yearly=M3loadmult_Sep16to17 !1.870056
New Load.BB_263791c Bus1=DEV_263919.3 Phases=1 kV=7.19955785679 Model=1 kW=17.902548 pf=.98 yearly=M3loadmult_Sep16to17 !3.653635
New Load.BB_263792c Bus1=DEV_263556.3 Phases=1 kV=7.19955785679 Model=1 kW=17.002124 pf=.98 yearly=M3loadmult_Sep16to17 !3.469873
New Load.BB_263793a Bus1=DEV_263717.1 Phases=1 kV=7.19955785679 Model=1 kW=15.995768 pf=.98 yearly=M3loadmult_Sep16to17 !3.264491
New Load.BB_263794a Bus1=DEV_263903.1 Phases=1 kV=7.19955785679 Model=1 kW=16.366531 pf=.98 yearly=M3loadmult_Sep16to17 !3.340158
New Load.BB_263795a Bus1=DEV_263907.1 Phases=1 kV=7.19955785679 Model=1 kW=19.067803 pf=.98 yearly=M3loadmult_Sep16to17 !3.891446
New Load.BB_263796b Bus1=DEV_263720.2 Phases=1 kV=7.19955785679 Model=1 kW=17.955515 pf=.98 yearly=M3loadmult_Sep16to17 !3.664445
New Load.BB_263797b Bus1=DEV_263652.2 Phases=1 kV=7.19955785679 Model=1 kW=15.730938 pf=.98 yearly=M3loadmult_Sep16to17 !3.210443
New Load.BB_263798b Bus1=DEV_263901.2 Phases=1 kV=7.19955785679 Model=1 kW=15.783904 pf=.98 yearly=M3loadmult_Sep16to17 !3.221252
New Load.BB_263799a Bus1=DEV_263644.1 Phases=1 kV=7.19955785679 Model=1 kW=14.406785 pf=.98 yearly=M3loadmult_Sep16to17 !2.940204
New Load.BB_263800b Bus1=DEV_263899.2 Phases=1 kV=7.19955785679 Model=1 kW=15.042378 pf=.98 yearly=M3loadmult_Sep16to17 !3.069918
New Load.BB_263801c Bus1=DEV_263690.3 Phases=1 kV=7.19955785679 Model=1 kW=13.082632 pf=.98 yearly=M3loadmult_Sep16to17 !2.669964
New Load.BB_263802c Bus1=DEV_263871.3 Phases=1 kV=7.19955785679 Model=1 kW=10.063563 pf=.98 yearly=M3loadmult_Sep16to17 !2.053819
New Load.BB_263803c Bus1=DEV_263680.3 Phases=1 kV=7.19955785679 Model=1 kW=19.226701 pf=.98 yearly=M3loadmult_Sep16to17 !3.923875
New Load.BB_263804c Bus1=DEV_263873.3 Phases=1 kV=7.19955785679 Model=1 kW=12.129241 pf=.98 yearly=M3loadmult_Sep16to17 !2.475392
New Load.BB_263805c Bus1=DEV_263875.3 Phases=1 kV=7.19955785679 Model=1 kW=14.247886 pf=.98 yearly=M3loadmult_Sep16to17 !2.907775
New Load.BB_263806c Bus1=DEV_263865.3 Phases=1 kV=7.19955785679 Model=1 kW=10.963987 pf=.98 yearly=M3loadmult_Sep16to17 !2.237581
New Load.BB_263807c Bus1=DEV_263867.3 Phases=1 kV=7.19955785679 Model=1 kW=13.241530 pf=.98 yearly=M3loadmult_Sep16to17 !2.702393
New Load.BB_263808c Bus1=DEV_263863.3 Phases=1 kV=7.19955785679 Model=1 kW=16.631362 pf=.98 yearly=M3loadmult_Sep16to17 !3.394206
New Load.BB_263809c Bus1=DEV_263869.3 Phases=1 kV=7.19955785679 Model=1 kW=10.911021 pf=.98 yearly=M3loadmult_Sep16to17 !2.226772
New Load.BB_263817a Bus1=DEV_263621.1 Phases=1 kV=7.19955785679 Model=1 kW=7.203392 pf=.98 yearly=M3loadmult_Sep16to17 !1.470102
New Load.BB_263823b Bus1=DEV_263622.2 Phases=1 kV=7.19955785679 Model=1 kW=13.241530 pf=.98 yearly=M3loadmult_Sep16to17 !2.702393
New Load.BB_263833a Bus1=DEV_263923.1 Phases=1 kV=7.19955785679 Model=1 kW=8.262715 pf=.98 yearly=M3loadmult_Sep16to17 !1.686293
New Load.BB_263833b Bus1=DEV_263923.2 Phases=1 kV=7.19955785679 Model=1 kW=8.262715 pf=.98 yearly=M3loadmult_Sep16to17 !1.686293
New Load.BB_263833c Bus1=DEV_263923.3 Phases=1 kV=7.19955785679 Model=1 kW=8.262715 pf=.98 yearly=M3loadmult_Sep16to17 !1.686293
New Load.BB_263888b Bus1=DEV_263887.2 Phases=1 kV=7.19955785679 Model=1 kW=5.773307 pf=.98 yearly=M3loadmult_Sep16to17 !1.178243
New Load.BB_264037b Bus1=DEV_264038.2 Phases=1 kV=7.19955785679 Model=1 kW=9.851698 pf=.98 yearly=M3loadmult_Sep16to17 !2.010580
New Load.BB_264116c Bus1=DEV_264113.3 Phases=1 kV=7.19955785679 Model=1 kW=18.326277 pf=.98 yearly=M3loadmult_Sep16to17 !3.740112
New Load.BB_264119a Bus1=DEV_264111.1 Phases=1 kV=7.19955785679 Model=1 kW=18.591108 pf=.98 yearly=M3loadmult_Sep16to17 !3.794160
New Load.BB_264132a Bus1=DEV_264131.1 Phases=1 kV=7.19955785679 Model=1 kW=22.033906 pf=.98 yearly=M3loadmult_Sep16to17 !4.496782
New Load.BB_264986a Bus1=DEV_264984.1 Phases=1 kV=7.19955785679 Model=1 kW=23.040262 pf=.98 yearly=M3loadmult_Sep16to17 !4.702164
New Load.BB_264987a Bus1=DEV_264980.1 Phases=1 kV=7.19955785679 Model=1 kW=19.703396 pf=.98 yearly=M3loadmult_Sep16to17 !4.021161
New Load.BB_265164a Bus1=DEV_265174.1 Phases=1 kV=7.19955785679 Model=1 kW=8.474579 pf=.98 yearly=M3loadmult_Sep16to17 !1.729532
New Load.BB_265164b Bus1=DEV_265174.2 Phases=1 kV=7.19955785679 Model=1 kW=8.474579 pf=.98 yearly=M3loadmult_Sep16to17 !1.729532
New Load.BB_265164c Bus1=DEV_265174.3 Phases=1 kV=7.19955785679 Model=1 kW=8.474579 pf=.98 yearly=M3loadmult_Sep16to17 !1.729532
New Load.BB_51045896a Bus1=DEV_51045898.1 Phases=1 kV=7.19955785679 Model=1 kW=22.112509 pf=.98 yearly=M3loadmult_Sep16to17 !4.367140
New Load.BB_51045964c Bus1=DEV_51045966.3 Phases=1 kV=7.19955785679 Model=1 kW=29.630763 pf=.98 yearly=M3loadmult_Sep16to17 !5.851968
New Load.BB_51045975c Bus1=DEV_51045977.3 Phases=1 kV=7.19955785679 Model=1 kW=17.303039 pf=.98 yearly=M3loadmult_Sep16to17 !3.417287
New Load.BB_51045982c Bus1=DEV_51045984.3 Phases=1 kV=7.19955785679 Model=1 kW=11.443224 pf=.98 yearly=M3loadmult_Sep16to17 !2.259995
New Load.BB_51045990b Bus1=DEV_51045992.2 Phases=1 kV=7.19955785679 Model=1 kW=0.497531 pf=.98 yearly=M3loadmult_Sep16to17 !0.098261
New Load.BB_51046018b Bus1=DEV_51046020.2 Phases=1 kV=7.19955785679 Model=1 kW=6.467909 pf=.98 yearly=M3loadmult_Sep16to17 !1.277388
New Load.BB_51046037b Bus1=DEV_51046039.2 Phases=1 kV=7.19955785679 Model=1 kW=11.719630 pf=.98 yearly=M3loadmult_Sep16to17 !2.314584
New Load.BB_51046044c Bus1=DEV_51046046.3 Phases=1 kV=7.19955785679 Model=1 kW=18.685070 pf=.98 yearly=M3loadmult_Sep16to17 !3.690233
New Load.BB_51054581a Bus1=DEV_51054583.1 Phases=1 kV=7.19955785679 Model=1 kW=1.160907 pf=.98 yearly=M3loadmult_Sep16to17 !0.229275
New Load.BB_51067432a Bus1=DEV_51067434.1 Phases=1 kV=7.19955785679 Model=1 kW=13.294496 pf=.98 yearly=M3loadmult_Sep16to17 !2.713203
New Load.BB_51118539a Bus1=DEV_51118541.1 Phases=1 kV=7.19955785679 Model=1 kW=11.387716 pf=.98 yearly=M3loadmult_Sep16to17 !2.324058
New Load.BB_51118539b Bus1=DEV_51118541.2 Phases=1 kV=7.19955785679 Model=1 kW=11.387716 pf=.98 yearly=M3loadmult_Sep16to17 !2.324058
New Load.BB_51118539c Bus1=DEV_51118541.3 Phases=1 kV=7.19955785679 Model=1 kW=11.387716 pf=.98 yearly=M3loadmult_Sep16to17 !2.324058
New Load.OH_257608c Bus1=DEV_257789.3 Phases=1 kV=7.19955785679 Model=1 kW=18.021695 pf=.98 yearly=M3loadmult_Sep16to17 !3.559219
New Load.OH_257796c Bus1=NODE_559690.3 Phases=1 kV=7.19955785679 Model=1 kW=27.751199 pf=.98 yearly=M3loadmult_Sep16to17 !5.480761
New Load.OH_257798c Bus1=DEV_257790.3 Phases=1 kV=7.19955785679 Model=1 kW=32.228982 pf=.98 yearly=M3loadmult_Sep16to17 !6.365107
New Load.OH_257804c Bus1=DEV_257791.3 Phases=1 kV=7.19955785679 Model=1 kW=10.835130 pf=.98 yearly=M3loadmult_Sep16to17 !2.139899
New Load.OH_257806c Bus1=DEV_257795.3 Phases=1 kV=7.19955785679 Model=1 kW=21.449134 pf=.98 yearly=M3loadmult_Sep16to17 !4.236126
New Load.OH_257807c Bus1=DEV_257565.3 Phases=1 kV=7.19955785679 Model=1 kW=18.298101 pf=.98 yearly=M3loadmult_Sep16to17 !3.613808
New Load.OH_257808c Bus1=DEV_257809.3 Phases=1 kV=7.19955785679 Model=1 kW=16.142132 pf=.98 yearly=M3loadmult_Sep16to17 !3.188012
New Load.OH_257811c Bus1=DEV_257810.3 Phases=1 kV=7.19955785679 Model=1 kW=16.473819 pf=.98 yearly=M3loadmult_Sep16to17 !3.253519
New Load.OH_257813c Bus1=DEV_257812.3 Phases=1 kV=7.19955785679 Model=1 kW=10.669286 pf=.98 yearly=M3loadmult_Sep16to17 !2.107145
New Load.OH_257815c Bus1=DEV_257814.3 Phases=1 kV=7.19955785679 Model=1 kW=23.660385 pf=.98 yearly=M3loadmult_Sep16to17 !4.672840
New Load.OH_258777a Bus1=NODE_609020.1 Phases=1 kV=7.19955785679 Model=1 kW=12.217161 pf=.98 yearly=M3loadmult_Sep16to17 !2.412845
New Load.OH_260847a Bus1=DEV_260853.1 Phases=1 kV=7.19955785679 Model=1 kW=10.669286 pf=.98 yearly=M3loadmult_Sep16to17 !2.107145
New Load.OH_260847c Bus1=DEV_260853.3 Phases=1 kV=7.19955785679 Model=1 kW=10.669286 pf=.98 yearly=M3loadmult_Sep16to17 !2.107145
New Load.OH_260849a Bus1=DEV_260852.1 Phases=1 kV=7.19955785679 Model=1 kW=5.915096 pf=.98 yearly=M3loadmult_Sep16to17 !1.168210
New Load.OH_260849b Bus1=DEV_260852.2 Phases=1 kV=7.19955785679 Model=1 kW=5.915096 pf=.98 yearly=M3loadmult_Sep16to17 !1.168210
New Load.OH_260850a Bus1=DEV_260851.1 Phases=1 kV=7.19955785679 Model=1 kW=6.302065 pf=.98 yearly=M3loadmult_Sep16to17 !1.244635
New Load.OH_260850c Bus1=DEV_260851.3 Phases=1 kV=7.19955785679 Model=1 kW=6.302065 pf=.98 yearly=M3loadmult_Sep16to17 !1.244635
New Load.OH_260930a Bus1=DEV_51187136.1 Phases=1 kV=7.19955785679 Model=1 kW=6.246784 pf=.98 yearly=M3loadmult_Sep16to17 !1.233717
New Load.OH_260930c Bus1=DEV_51187136.3 Phases=1 kV=7.19955785679 Model=1 kW=6.246784 pf=.98 yearly=M3loadmult_Sep16to17 !1.233717
New Load.OH_260932a Bus1=DEV_260933.1 Phases=1 kV=7.19955785679 Model=1 kW=4.698908 pf=.98 yearly=M3loadmult_Sep16to17 !0.928017
New Load.OH_260932c Bus1=DEV_260933.3 Phases=1 kV=7.19955785679 Model=1 kW=4.698908 pf=.98 yearly=M3loadmult_Sep16to17 !0.928017
New Load.OH_260935a Bus1=NODE_630664.1 Phases=1 kV=7.19955785679 Model=1 kW=3.372158 pf=.98 yearly=M3loadmult_Sep16to17 !0.665989
New Load.OH_260935b Bus1=NODE_630664.2 Phases=1 kV=7.19955785679 Model=1 kW=3.372158 pf=.98 yearly=M3loadmult_Sep16to17 !0.665989
New Load.OH_260937a Bus1=NODE_630695.1 Phases=1 kV=7.19955785679 Model=1 kW=3.151033 pf=.98 yearly=M3loadmult_Sep16to17 !0.622317
New Load.OH_260937c Bus1=NODE_630695.3 Phases=1 kV=7.19955785679 Model=1 kW=3.151033 pf=.98 yearly=M3loadmult_Sep16to17 !0.622317
New Load.OH_260940a Bus1=NODE_630677.1 Phases=1 kV=7.19955785679 Model=1 kW=2.045407 pf=.98 yearly=M3loadmult_Sep16to17 !0.403960
New Load.OH_260940b Bus1=NODE_630677.2 Phases=1 kV=7.19955785679 Model=1 kW=2.045407 pf=.98 yearly=M3loadmult_Sep16to17 !0.403960
New Load.OH_260940c Bus1=NODE_630677.3 Phases=1 kV=7.19955785679 Model=1 kW=2.045407 pf=.98 yearly=M3loadmult_Sep16to17 !0.403960
New Load.OH_260945c Bus1=NODE_630695.3 Phases=1 kV=7.19955785679 Model=1 kW=10.669286 pf=.98 yearly=M3loadmult_Sep16to17 !2.107145
New Load.OH_260946a Bus1=DEV_260949.1 Phases=1 kV=7.19955785679 Model=1 kW=14.981225 pf=.98 yearly=M3loadmult_Sep16to17 !2.958737
New Load.OH_261400a Bus1=NODE_11021972.1 Phases=1 kV=7.19955785679 Model=1 kW=5.749252 pf=.98 yearly=M3loadmult_Sep16to17 !1.135456
New Load.OH_261400b Bus1=NODE_11021972.2 Phases=1 kV=7.19955785679 Model=1 kW=5.749252 pf=.98 yearly=M3loadmult_Sep16to17 !1.135456
New Load.OH_261429a Bus1=DEV_261428.1 Phases=1 kV=7.19955785679 Model=1 kW=3.980252 pf=.98 yearly=M3loadmult_Sep16to17 !0.786085
New Load.OH_261429c Bus1=DEV_261428.3 Phases=1 kV=7.19955785679 Model=1 kW=3.980252 pf=.98 yearly=M3loadmult_Sep16to17 !0.786085
New Load.OH_261479a Bus1=DEV_261481.1 Phases=1 kV=7.19955785679 Model=1 kW=9.121410 pf=.98 yearly=M3loadmult_Sep16to17 !1.801445
New Load.OH_261479c Bus1=DEV_261481.3 Phases=1 kV=7.19955785679 Model=1 kW=9.121410 pf=.98 yearly=M3loadmult_Sep16to17 !1.801445
New Load.OH_261483a Bus1=DEV_261484.1 Phases=1 kV=7.19955785679 Model=1 kW=11.387942 pf=.98 yearly=M3loadmult_Sep16to17 !2.249077
New Load.OH_261483b Bus1=DEV_261484.2 Phases=1 kV=7.19955785679 Model=1 kW=11.387942 pf=.98 yearly=M3loadmult_Sep16to17 !2.249077
New Load.OH_261486a Bus1=DEV_261487.1 Phases=1 kV=7.19955785679 Model=1 kW=6.246784 pf=.98 yearly=M3loadmult_Sep16to17 !1.233717
New Load.OH_261486b Bus1=DEV_261487.2 Phases=1 kV=7.19955785679 Model=1 kW=6.246784 pf=.98 yearly=M3loadmult_Sep16to17 !1.233717
New Load.OH_261488a Bus1=DEV_261490.1 Phases=1 kV=7.19955785679 Model=1 kW=0.552813 pf=.98 yearly=M3loadmult_Sep16to17 !0.109179
New Load.OH_261488c Bus1=DEV_261490.3 Phases=1 kV=7.19955785679 Model=1 kW=0.552813 pf=.98 yearly=M3loadmult_Sep16to17 !0.109179
New Load.OH_261491a Bus1=DEV_261492.1 Phases=1 kV=7.19955785679 Model=1 kW=1.547876 pf=.98 yearly=M3loadmult_Sep16to17 !0.305700
New Load.OH_261491b Bus1=DEV_261492.2 Phases=1 kV=7.19955785679 Model=1 kW=1.547876 pf=.98 yearly=M3loadmult_Sep16to17 !0.305700
New Load.OH_261491c Bus1=DEV_261492.3 Phases=1 kV=7.19955785679 Model=1 kW=1.547876 pf=.98 yearly=M3loadmult_Sep16to17 !0.305700
New Load.OH_261535a Bus1=DEV_261606.1 Phases=1 kV=7.19955785679 Model=1 kW=8.679160 pf=.98 yearly=M3loadmult_Sep16to17 !1.714103
New Load.OH_261573b Bus1=DEV_261608.2 Phases=1 kV=7.19955785679 Model=1 kW=11.277380 pf=.98 yearly=M3loadmult_Sep16to17 !2.227241
New Load.OH_261573c Bus1=DEV_261608.3 Phases=1 kV=7.19955785679 Model=1 kW=11.277380 pf=.98 yearly=M3loadmult_Sep16to17 !2.227241
New Load.OH_261576a Bus1=NODE_609861.1 Phases=1 kV=7.19955785679 Model=1 kW=4.698908 pf=.98 yearly=M3loadmult_Sep16to17 !0.928017
New Load.OH_261576c Bus1=NODE_609861.3 Phases=1 kV=7.19955785679 Model=1 kW=4.698908 pf=.98 yearly=M3loadmult_Sep16to17 !0.928017
New Load.OH_261579a Bus1=NODE_609855.1 Phases=1 kV=7.19955785679 Model=1 kW=4.809471 pf=.98 yearly=M3loadmult_Sep16to17 !0.949853
New Load.OH_261579c Bus1=NODE_609855.3 Phases=1 kV=7.19955785679 Model=1 kW=4.809471 pf=.98 yearly=M3loadmult_Sep16to17 !0.949853
New Load.OH_261584a Bus1=DEV_261585.1 Phases=1 kV=7.19955785679 Model=1 kW=14.704819 pf=.98 yearly=M3loadmult_Sep16to17 !2.904148
New Load.OH_261584c Bus1=DEV_261585.3 Phases=1 kV=7.19955785679 Model=1 kW=14.704819 pf=.98 yearly=M3loadmult_Sep16to17 !2.904148
New Load.OH_261589b Bus1=DEV_261611.2 Phases=1 kV=7.19955785679 Model=1 kW=3.372158 pf=.98 yearly=M3loadmult_Sep16to17 !0.665989
New Load.OH_261589c Bus1=DEV_261611.3 Phases=1 kV=7.19955785679 Model=1 kW=3.372158 pf=.98 yearly=M3loadmult_Sep16to17 !0.665989
New Load.OH_261591a Bus1=DEV_261615.1 Phases=1 kV=7.19955785679 Model=1 kW=3.593283 pf=.98 yearly=M3loadmult_Sep16to17 !0.709660
New Load.OH_261591c Bus1=DEV_261615.3 Phases=1 kV=7.19955785679 Model=1 kW=3.593283 pf=.98 yearly=M3loadmult_Sep16to17 !0.709660
New Load.OH_261592a Bus1=DEV_261610.1 Phases=1 kV=7.19955785679 Model=1 kW=7.849941 pf=.98 yearly=M3loadmult_Sep16to17 !1.550335
New Load.OH_261592c Bus1=DEV_261610.3 Phases=1 kV=7.19955785679 Model=1 kW=7.849941 pf=.98 yearly=M3loadmult_Sep16to17 !1.550335
New Load.OH_261596a Bus1=DEV_261619.1 Phases=1 kV=7.19955785679 Model=1 kW=7.076003 pf=.98 yearly=M3loadmult_Sep16to17 !1.397485
New Load.OH_261596c Bus1=DEV_261619.3 Phases=1 kV=7.19955785679 Model=1 kW=7.076003 pf=.98 yearly=M3loadmult_Sep16to17 !1.397485
New Load.OH_261604a Bus1=DEV_261599.1 Phases=1 kV=7.19955785679 Model=1 kW=9.231973 pf=.98 yearly=M3loadmult_Sep16to17 !1.823281
New Load.OH_261604c Bus1=DEV_261599.3 Phases=1 kV=7.19955785679 Model=1 kW=9.231973 pf=.98 yearly=M3loadmult_Sep16to17 !1.823281
New Load.OH_261662c Bus1=DEV_261667.3 Phases=1 kV=7.19955785679 Model=1 kW=9.618942 pf=.98 yearly=M3loadmult_Sep16to17 !1.899706
New Load.OH_261662a Bus1=DEV_261667.1 Phases=1 kV=7.19955785679 Model=1 kW=0.110563 pf=.98 yearly=M3loadmult_Sep16to17 !0.021836
New Load.OH_261662b Bus1=DEV_261667.2 Phases=1 kV=7.19955785679 Model=1 kW=0.110563 pf=.98 yearly=M3loadmult_Sep16to17 !0.021836
New Load.OH_261663a Bus1=DEV_261702.1 Phases=1 kV=7.19955785679 Model=1 kW=15.423475 pf=.98 yearly=M3loadmult_Sep16to17 !3.046080
New Load.OH_261664b Bus1=DEV_261701.2 Phases=1 kV=7.19955785679 Model=1 kW=200.658438 pf=.98 yearly=M3loadmult_Sep16to17 !10.327536
New Load.OH_261666c Bus1=NODE_11021904.3 Phases=1 kV=7.19955785679 Model=1 kW=21.172728 pf=.98 yearly=M3loadmult_Sep16to17 !4.181537
New Load.OH_261668a Bus1=DEV_261700.1 Phases=1 kV=7.19955785679 Model=1 kW=1.824282 pf=.98 yearly=M3loadmult_Sep16to17 !0.360289
New Load.OH_261668b Bus1=DEV_261700.2 Phases=1 kV=7.19955785679 Model=1 kW=1.824282 pf=.98 yearly=M3loadmult_Sep16to17 !0.360289
New Load.OH_261691b Bus1=DEV_261698.2 Phases=1 kV=7.19955785679 Model=1 kW=0.718657 pf=.98 yearly=M3loadmult_Sep16to17 !0.141932
New Load.OH_261691c Bus1=DEV_261698.3 Phases=1 kV=7.19955785679 Model=1 kW=0.718657 pf=.98 yearly=M3loadmult_Sep16to17 !0.141932
New Load.OH_261704a Bus1=DEV_261705.1 Phases=1 kV=7.19955785679 Model=1 kW=1.437313 pf=.98 yearly=M3loadmult_Sep16to17 !0.283864
New Load.OH_261704b Bus1=DEV_261705.2 Phases=1 kV=7.19955785679 Model=1 kW=1.437313 pf=.98 yearly=M3loadmult_Sep16to17 !0.283864
New Load.OH_261709a Bus1=NODE_619119.1 Phases=1 kV=7.19955785679 Model=1 kW=1.437313 pf=.98 yearly=M3loadmult_Sep16to17 !0.283864
New Load.OH_261709b Bus1=NODE_619119.2 Phases=1 kV=7.19955785679 Model=1 kW=1.437313 pf=.98 yearly=M3loadmult_Sep16to17 !0.283864
New Load.OH_261715a Bus1=DEV_51058691.1 Phases=1 kV=7.19955785679 Model=1 kW=0.221125 pf=.98 yearly=M3loadmult_Sep16to17 !0.043671
New Load.OH_261715b Bus1=DEV_51058691.2 Phases=1 kV=7.19955785679 Model=1 kW=0.221125 pf=.98 yearly=M3loadmult_Sep16to17 !0.043671
New Load.OH_261715c Bus1=DEV_51058691.3 Phases=1 kV=7.19955785679 Model=1 kW=0.221125 pf=.98 yearly=M3loadmult_Sep16to17 !0.043671
New Load.OH_261747a Bus1=DEV_261736.1 Phases=1 kV=7.19955785679 Model=1 kW=3.814408 pf=.98 yearly=M3loadmult_Sep16to17 !0.753332
New Load.OH_261750a Bus1=DEV_261735.1 Phases=1 kV=7.19955785679 Model=1 kW=0.718657 pf=.98 yearly=M3loadmult_Sep16to17 !0.141932
New Load.OH_261750b Bus1=DEV_261735.2 Phases=1 kV=7.19955785679 Model=1 kW=0.718657 pf=.98 yearly=M3loadmult_Sep16to17 !0.141932
New Load.OH_261750c Bus1=DEV_261735.3 Phases=1 kV=7.19955785679 Model=1 kW=0.718657 pf=.98 yearly=M3loadmult_Sep16to17 !0.141932
New Load.OH_261847a Bus1=DEV_261851.1 Phases=1 kV=7.19955785679 Model=1 kW=11.917377 pf=.98 yearly=M3loadmult_Sep16to17 !2.432154
New Load.OH_262480b Bus1=NODE_10017657.2 Phases=1 kV=7.19955785679 Model=1 kW=25.370771 pf=.98 yearly=M3loadmult_Sep16to17 !5.177785
New Load.OH_262481b Bus1=DEV_262518.2 Phases=1 kV=7.19955785679 Model=1 kW=22.351702 pf=.98 yearly=M3loadmult_Sep16to17 !4.561639
New Load.OH_262483a Bus1=DEV_262502.1 Phases=1 kV=7.19955785679 Model=1 kW=6.832629 pf=.98 yearly=M3loadmult_Sep16to17 !1.394435
New Load.OH_262485b Bus1=DEV_262515.2 Phases=1 kV=7.19955785679 Model=1 kW=24.258483 pf=.98 yearly=M3loadmult_Sep16to17 !4.950784
New Load.OH_262486c Bus1=DEV_262513.3 Phases=1 kV=7.19955785679 Model=1 kW=18.485176 pf=.98 yearly=M3loadmult_Sep16to17 !3.772541
New Load.OH_262488b Bus1=DEV_262514.2 Phases=1 kV=7.19955785679 Model=1 kW=14.724581 pf=.98 yearly=M3loadmult_Sep16to17 !3.005061
New Load.OH_262490c Bus1=DEV_262511.3 Phases=1 kV=7.19955785679 Model=1 kW=8.633477 pf=.98 yearly=M3loadmult_Sep16to17 !1.761960
New Load.OH_262560a Bus1=NODE_30055093.1 Phases=1 kV=7.19955785679 Model=1 kW=0.110563 pf=.98 yearly=M3loadmult_Sep16to17 !0.021836
New Load.OH_262560b Bus1=NODE_30055093.2 Phases=1 kV=7.19955785679 Model=1 kW=0.110563 pf=.98 yearly=M3loadmult_Sep16to17 !0.021836
New Load.OH_262560c Bus1=NODE_30055093.3 Phases=1 kV=7.19955785679 Model=1 kW=0.110563 pf=.98 yearly=M3loadmult_Sep16to17 !0.021836
New Load.OH_262595a Bus1=DEV_262597.1 Phases=1 kV=7.19955785679 Model=1 kW=0.773938 pf=.98 yearly=M3loadmult_Sep16to17 !0.152850
New Load.OH_262595c Bus1=DEV_262597.3 Phases=1 kV=7.19955785679 Model=1 kW=0.773938 pf=.98 yearly=M3loadmult_Sep16to17 !0.152850
New Load.OH_262646b Bus1=NODE_11021965.2 Phases=1 kV=7.19955785679 Model=1 kW=7.462972 pf=.98 yearly=M3loadmult_Sep16to17 !1.473910
New Load.OH_262646c Bus1=NODE_11021965.3 Phases=1 kV=7.19955785679 Model=1 kW=7.462972 pf=.98 yearly=M3loadmult_Sep16to17 !1.473910
New Load.OH_262648a Bus1=NODE_619037.1 Phases=1 kV=7.19955785679 Model=1 kW=3.482720 pf=.98 yearly=M3loadmult_Sep16to17 !0.687825
New Load.OH_262648c Bus1=NODE_619037.3 Phases=1 kV=7.19955785679 Model=1 kW=3.482720 pf=.98 yearly=M3loadmult_Sep16to17 !0.687825
New Load.OH_262654a Bus1=DEV_262689.1 Phases=1 kV=7.19955785679 Model=1 kW=2.819345 pf=.98 yearly=M3loadmult_Sep16to17 !0.556810
New Load.OH_262654c Bus1=DEV_262689.3 Phases=1 kV=7.19955785679 Model=1 kW=2.819345 pf=.98 yearly=M3loadmult_Sep16to17 !0.556810
New Load.OH_262655a Bus1=DEV_262688.1 Phases=1 kV=7.19955785679 Model=1 kW=7.131284 pf=.98 yearly=M3loadmult_Sep16to17 !1.408403
New Load.OH_262655c Bus1=DEV_262688.3 Phases=1 kV=7.19955785679 Model=1 kW=7.131284 pf=.98 yearly=M3loadmult_Sep16to17 !1.408403
New Load.OH_262657a Bus1=DEV_51117467.1 Phases=1 kV=7.19955785679 Model=1 kW=3.593283 pf=.98 yearly=M3loadmult_Sep16to17 !0.709660
New Load.OH_262657c Bus1=DEV_51117467.3 Phases=1 kV=7.19955785679 Model=1 kW=3.593283 pf=.98 yearly=M3loadmult_Sep16to17 !0.709660
New Load.OH_262662a Bus1=NODE_11021961.1 Phases=1 kV=7.19955785679 Model=1 kW=3.040470 pf=.98 yearly=M3loadmult_Sep16to17 !0.600482
New Load.OH_262662c Bus1=NODE_11021961.3 Phases=1 kV=7.19955785679 Model=1 kW=3.040470 pf=.98 yearly=M3loadmult_Sep16to17 !0.600482
New Load.OH_262673c Bus1=DEV_51079464.3 Phases=1 kV=7.19955785679 Model=1 kW=12.106599 pf=.98 yearly=M3loadmult_Sep16to17 !2.391009
New Load.OH_262729a Bus1=DEV_262733.1 Phases=1 kV=7.19955785679 Model=1 kW=1.492594 pf=.98 yearly=M3loadmult_Sep16to17 !0.294782
New Load.OH_262729c Bus1=DEV_262733.3 Phases=1 kV=7.19955785679 Model=1 kW=1.492594 pf=.98 yearly=M3loadmult_Sep16to17 !0.294782
New Load.OH_262752b Bus1=DEV_51071988.2 Phases=1 kV=7.19955785679 Model=1 kW=1.326751 pf=.98 yearly=M3loadmult_Sep16to17 !0.262028
...
!New Load.OH_261733b bus=node_12011152.2 phases=1 kv=7.2 kW=200.000123 pf=.98 yearly=M3loadmult_Sep16to17 !50.8876125 model=1
